/*--------------------------------*- C++ -*----------------------------------*\
  =========                 |
  \\      /  F ield         | OpenFOAM: The Open Source CFD Toolbox
   \\    /   O peration     | Website:  https://openfoam.org
    \\  /    A nd           | Version:  dev
     \\/     M anipulation  |
\*---------------------------------------------------------------------------*/
FoamFile
{
    format      ascii;
    class       volScalarField;
    location    "0";
    object      k;
}
// * * * * * * * * * * * * * * * * * * * * * * * * * * * * * * * * * * * * * //

dimensions      [0 2 -2 0 0 0 0];

internalField   uniform 0.375;

boundaryField
{
    fuel
    {
        type            fixedValue;
        value           uniform 0.375;
    }
    inlet
    {
        type            turbulentIntensityKineticEnergyInlet;
        intensity       0.02;
        value           $internalField;
    }
    outlet
    {
        type            inletOutlet;
        inletValue      $internalField;
        value           $internalField;
    }
    fixedWalls
    {
        type            zeroGradient;
    }
    frontAndBack
    {
        type            empty;
    }

}


// ************************************************************************* //

